Circuit: * C:\Users\alumno\Desktop\TP2_potencia-master\TP2_potencia-master\Circuito_Completo_Con_Filtro.asc

Warning: Multiple definitions of model "2sd1898" Type: BJT
Warning: Multiple definitions of model "d45h11" Type: BJT
Warning: Multiple definitions of model "bc856b" Type: BJT
Warning: Multiple definitions of model "bc556b" Type: BJT
Warning: Multiple definitions of model "bc846b" Type: BJT
Warning: Multiple definitions of model "bc546b" Type: BJT
Warning: Multiple definitions of model "bc327-40" Type: BJT
Warning: Multiple definitions of model "bc327-25" Type: BJT
Warning: Multiple definitions of model "bc807-40" Type: BJT
Warning: Multiple definitions of model "bc807-25" Type: BJT
Warning: Multiple definitions of model "bc857c" Type: BJT
Warning: Multiple definitions of model "bc857b" Type: BJT
Warning: Multiple definitions of model "bc857a" Type: BJT
Warning: Multiple definitions of model "bc557c" Type: BJT
Warning: Multiple definitions of model "bc557b" Type: BJT
Warning: Multiple definitions of model "bc337-40" Type: BJT
Warning: Multiple definitions of model "bc337-25" Type: BJT
Warning: Multiple definitions of model "bc817-40" Type: BJT
Warning: Multiple definitions of model "bc817-25" Type: BJT
Warning: Multiple definitions of model "bc847c" Type: BJT
Warning: Multiple definitions of model "bc847b" Type: BJT
Warning: Multiple definitions of model "bc847a" Type: BJT
Warning: Multiple definitions of model "bc547c" Type: BJT
Warning: Multiple definitions of model "bc547b" Type: BJT
Warning: Multiple definitions of model "2n3019" Type: BJT
Warning: Multiple definitions of model "bcw68g" Type: BJT
Warning: Multiple definitions of model "bcw68f" Type: BJT
Warning: Multiple definitions of model "bcw60d" Type: BJT
Warning: Multiple definitions of model "bcw60c" Type: BJT
Warning: Multiple definitions of model "bcw60b" Type: BJT
Warning: Multiple definitions of model "bcw60a" Type: BJT
Warning: Multiple definitions of model "2n3055" Type: BJT
Warning: Multiple definitions of model "2n5771" Type: BJT
Warning: Multiple definitions of model "2n5769" Type: BJT
Warning: Multiple definitions of model "2n2369" Type: BJT
Warning: Multiple definitions of model "2n5401" Type: BJT
Warning: Multiple definitions of model "2n5550" Type: BJT
Warning: Multiple definitions of model "2n4403" Type: BJT
Warning: Multiple definitions of model "2n4401" Type: BJT
Warning: Multiple definitions of model "2n2905a" Type: BJT
Warning: Multiple definitions of model "2n2219a" Type: BJT
Warning: Multiple definitions of model "2n5087" Type: BJT
Warning: Multiple definitions of model "2n5210" Type: BJT
Warning: Multiple definitions of model "2n5089" Type: BJT
Warning: Multiple definitions of model "2n3391a" Type: BJT
Warning: Multiple definitions of model "2n4126" Type: BJT
Warning: Multiple definitions of model "2n4124" Type: BJT
Warning: Multiple definitions of model "ztx1048a" Type: BJT
Warning: Multiple definitions of model "ztx849" Type: BJT
Warning: Multiple definitions of model "fzt849" Type: BJT
Warning: Multiple definitions of model "2n3906" Type: BJT
Warning: Multiple definitions of model "2n3904" Type: BJT
Warning: Multiple definitions of model "2n2907" Type: BJT
Warning: Multiple definitions of model "2n2222" Type: BJT
WARNING: Less than two connections to node NC_02.  This node is used by V3.
Instance "m:m2:2": Length shorter than recommended for a level 1 MOSFET.
Instance "m:m1:2": Length shorter than recommended for a level 1 MOSFET.
Early termination of direct N-R iteration.
Direct Newton iteration failed to find .op point.  (Use ".option noopiter" to skip.)
Starting Gmin stepping
Gmin = 10
vernier = 0.5
vernier = 0.25
vernier = 0.125
Gmin = 6.68666
vernier = 0.0625
vernier = 0.03125
vernier = 0.015625
vernier = 0.0078125
Gmin = 6.72377
vernier = 0.00390625
vernier = 0.00195313
vernier = 0.000976563
vernier = 0.000488281
Gmin = 6.72131
Gmin = 0
Gmin stepping failed

Starting source stepping with srcstepmethod=0
Source Step = 3.0303%
Source Step = 33.3333%
Source Step = 63.6364%
Source Step = 93.9394%
Source stepping succeeded in finding the operating point.

Heightened Def Con from 1.37067e-005 to 1.37107e-005
Heightened Def Con from 2.83138e-005 to 2.83155e-005
Heightened Def Con from 4.68525e-005 to 4.68525e-005
Heightened Def Con from 5.09057e-005 to 5.09097e-005
Heightened Def Con from 5.19389e-005 to 5.19407e-005
Heightened Def Con from 6.48224e-005 to 6.48242e-005
Heightened Def Con from 8.19996e-005 to 8.20014e-005
Heightened Def Con from 8.41423e-005 to 8.41441e-005
Heightened Def Con from 8.62994e-005 to 8.63011e-005
Heightened Def Con from 0.000103476 to 0.000103478
Heightened Def Con from 0.000114206 to 0.000114208
Heightened Def Con from 0.000129243 to 0.000129245
Heightened Def Con from 0.000165731 to 0.000165733
Heightened Def Con from 0.000167889 to 0.000167891
Heightened Def Con from 0.000174325 to 0.000174326
Heightened Def Con from 0.000182917 to 0.000182918
Heightened Def Con from 0.000185074 to 0.000185076
Heightened Def Con from 0.000189371 to 0.000189372
Heightened Def Con from 0.000195227 to 0.000195231
Heightened Def Con from 0.000219635 to 0.000219639
Heightened Def Con from 0.00026071 to 0.000260714
Heightened Def Con from 0.000268795 to 0.000268797
Heightened Def Con from 0.000273092 to 0.000273094
Heightened Def Con from 0.00027525 to 0.000275252
Heightened Def Con from 0.000281687 to 0.000281689
Heightened Def Con from 0.000283845 to 0.000283846
Heightened Def Con from 0.000288141 to 0.000288143
Heightened Def Con from 0.000292438 to 0.000292439
Heightened Def Con from 0.000310202 to 0.000310206
Heightened Def Con from 0.000314294 to 0.000314298
Heightened Def Con from 0.00033108 to 0.000331082
Heightened Def Con from 0.00033112 to 0.000331124
Heightened Def Con from 0.000335278 to 0.000335282
Heightened Def Con from 0.000337517 to 0.000337519
Heightened Def Con from 0.000343435 to 0.000343439
Heightened Def Con from 0.000347464 to 0.000347468
Heightened Def Con from 0.00035864 to 0.000358644
Heightened Def Con from 0.000365435 to 0.000365437
Heightened Def Con from 0.000367642 to 0.000367646
Heightened Def Con from 0.000376165 to 0.000376167
Heightened Def Con from 0.000380463 to 0.000380464
Heightened Def Con from 0.000386912 to 0.000386914
Heightened Def Con from 0.000403336 to 0.00040334
Heightened Def Con from 0.000421261 to 0.000421263
Heightened Def Con from 0.000429852 to 0.000429854
Heightened Def Con from 0.000434075 to 0.000434076
Heightened Def Con from 0.000436288 to 0.00043629
Heightened Def Con from 0.000440585 to 0.000440587
Heightened Def Con from 0.000444882 to 0.000444884
Heightened Def Con from 0.00047494 to 0.000474942
Heightened Def Con from 0.000481392 to 0.000481394
Heightened Def Con from 0.000483535 to 0.000483537
Heightened Def Con from 0.000487668 to 0.000487669
Heightened Def Con from 0.000492125 to 0.000492127
Heightened Def Con from 0.000498576 to 0.000498578

Date: Fri Nov 29 18:17:51 2019
Total elapsed time: 32.120 seconds.

tnom = 27
temp = 27
method = modified trap
totiter = 650438
traniter = 648617
tranpoints = 159939
accept = 116927
rejected = 43067
matrix size = 200
fillins = 798
solver = Normal
Thread vector: 21.4/11.8[4] 13.1/7.6[4] 8.0/4.7[4] 1.0/1.7[1]  2592/500
Matrix Compiler1: 104.18 KB object code size  17.8/11.1/[7.1]
Matrix Compiler2: 29.34 KB object code size  5.1/3.8/[1.4]

